// This is the forcefield file for the Embedded Atom Method (EAM)
// parameterized in:
//
//      X.W. Zhou, H.N.G. Wadley, R.A. Johnson, D.J. Larson, N. Tabat,
//      A. Cerezo, A.K. Petford-Long, G.D.W. Smith, P.H. Clifton,
//      R.L. Martens, T.F. Kelly, "Atomic scale structure of sputtered
//      metal multilayers," Acta Materialia 49(19), pp. 4005-4015 (2001).
//      http://dx.doi.org/10.1016/S1359-6454(01)00287-7
//
//      and
//
//      H.N.G Wadley, X Zhou, R.A Johnson, M Neurock, "Mechanisms,
//      Models and methods of vapor deposition," Progress in Materials
//      Science 46(3–4), pp. 329-377 (2001).
//      http://dx.doi.org/10.1016/S0079-6425(00)00009-8
//
// Note that as of OpenMD version 2.5, precomputed funcfl or setfl DYNAMO files
// are not required - the splines for the electron density,
// functional, and pair potentials are computed upon initialization.

begin Options
      Name                  EAMZHOU2001
      // energy units below are in eV. Convert to kcal/mol in OpenMD
      MetallicEnergyUnitScaling     23.0605423
      EAMMixingMethod	Johnson
end Options

begin BaseAtomTypes
Cu       63.550
Ag      107.87
Au      196.97
Ni       58.710
Pd      106.40
Pt      195.09
Al       26.981538
Pb      207.2
Fe       55.845
Mo       95.94
Ta      180.94788
W       183.84
Mg       24.3050
Co       58.933195
Ti       47.867
Zr       91.224
end BaseAtomTypes

begin EAMAtomTypes
// equlibrium distances (re) are in angstroms, density parameters (fe, rhoe) are in eV/angstrom
// most others (alpha, beta, kappa, lambda, eta) are dimensionless
// Spline parameters for the energy functional (Fn0, Fn1, Fn2, Fn3, F0, F1, F2, F3, Fe) are in eV
//
//at type lat re     fe       rhoe      alpha    beta     A        B        kappa    lambda   Fn0       Fn1       Fn2      Fn3       F0   F1 F2        F3        eta      Fe
Cu Zhou FCC 2.556162 1.554485 22.150141 7.669911 4.090619 0.327584 0.468735 0.431307 0.86214  -2.176490 -0.140035 0.285621 -1.750834 -2.19 0 0.702991  0.683705  0.92115  -2.191675
Ag Zhou FCC 2.891814 1.106232 15.539255 7.944536 4.237086 0.266074 0.386272 0.425351 0.850703 -1.729619 -0.221025 0.541558 -0.967036 -1.75 0 0.983967  0.520904  1.149461 -1.751274
Au Zhou FCC 2.885034 1.529021 21.319637 8.086176 4.312627 0.230728 0.336695 0.420755 0.841511 -2.930281 -0.554034 1.489437 -0.886809 -2.98 0 2.283863  0.494127  1.28696  -2.981365
Ni Zhou FCC 2.488746 2.007018 27.984706 8.029633 4.282471 0.439664 0.632771 0.413436 0.826873 -2.693996 -0.066073 0.170482 -2.457442 -2.70 0 0.282257  0.102879  0.50986  -2.700493
Pd Zhou FCC 2.750897 1.595417 22.77055  7.605017 4.056009 0.385412 0.545121 0.425578 0.851156 -2.320473 -0.421263 0.966525 -0.932685 -2.36 0 1.966273  1.396717  1.399758 -2.362609
Pt Zhou FCC 2.771916 2.336509 34.108882 7.079952 3.775974 0.449644 0.593713 0.413484 0.826967 -4.099542 -0.754764 1.766503 -1.578274 -4.17 0 3.474733  2.288323  1.39349  -4.174332
Al Zhou FCC 2.886166 1.392302 20.226537 6.942419 3.702623 0.251519 0.313394 0.395132 0.790264 -2.806783 -0.276173 0.893409 -1.637201 -2.83 0 0.929508 -0.682320  0.779208 -2.829437
Pb Zhou FCC 3.499723 0.647872  8.90684  8.468412 4.516486 0.134878 0.203093 0.425877 0.851753 -1.419644 -0.228622 0.630069 -0.560952 -1.44 0 0.921049  0.108847  1.172361 -1.440494
Fe Zhou BCC 2.481987 1.885957 20.041463 9.81827  5.236411 0.392811 0.646243 0.170306 0.340613 -2.534992 -0.059605 0.193065 -2.282322 -2.54 0 0.200269 -0.148770  0.39175  -2.539945
Mo Zhou BCC 2.7281   2.72371  29.354065 8.393531 4.47655  0.708787 1.120373 0.13764  0.27528  -3.692913 -0.178812 0.38045  -3.133650 -3.71 0 0.875874  0.776222  0.790879 -3.712093
Ta Zhou BCC 2.860082 3.086341 33.787168 8.489528 4.527748 0.611679 1.032101 0.176977 0.353954 -5.103845 -0.405524 1.112997 -3.585325 -5.14 0 1.640098  0.221375  0.848843 -5.141526
W  Zhou BCC 2.74084  3.48734  37.234847 8.900114 4.746728 0.882435 1.394592 0.139209 0.278417 -4.946281 -0.148818 0.365057 -4.432406 -4.96 0 0.661935  0.348147 -0.582714 -4.961306
Mg Zhou HCP 3.196291 0.544323  7.1326  10.228708 5.455311 0.137518 0.22593  0.5      1.0      -0.896473 -0.044291 0.162232 -0.689950 -0.90 0 0.122838 -0.226010  0.431425 -0.899702
Co Zhou FCC 2.505979 1.975299 27.206789 8.679625 4.629134 0.421378 0.640107 0.5      1.0      -2.541799 -0.219415 0.733381 -1.589003 -2.56 0 0.705845 -0.687140  0.694608 -2.559307
Ti Zhou HCP 2.933872 1.8632   25.565138 8.775431 4.68023  0.373601 0.570968 0.5      1.0      -3.203773 -0.198262 0.683779 -2.321732 -3.22 0 0.608587 -0.750710  0.558572 -3.219176
Zr Zhou HCP 3.199978 2.230909 30.879991 8.55919  4.564902 0.424667 0.640054 0.5      1.0      -4.485793 -0.293129 0.990148 -3.202516 -4.51 0 0.928602 -0.981870  0.597133 -4.509025
end EAMAtomTypes
