// Paramters from "Determination of Alkali and Halide Monovalent
// Ion Parameters for Use in Explicitly Solvated Biomolecular
// Simulations," by In Suk Joung and Thomas E. Cheatham III
// The Journal of Physical Chemistry B 2008 112 (30), 9020-9041
// DOI: 10.1021/jp8001614
//
// This version is for use with the SPC/E water model.

begin Options
      Name      "JoungCheatham-SPCE"
      DistanceMixingRule     Arithmetic
      EnergyMixingRule       Geometric
end Options

begin BaseAtomTypes
//name  mass (amu)
Li      6.941
Na      22.989769
K       39.0983
Rb      85.4678
Cs      132.90545
F       18.998403
Cl      35.453
Br      79.904
I       126.90447
end BaseAtomTypes

begin AtomTypes
//name  baseatomtype
Li+     Li
Na+     Na
K+      K
Rb+     Rb
Cs+     Cs
F-      F
Cl-     Cl
Br-     Br
I-      I
end AtomTypes

begin ChargeAtomTypes
//name  charge
Li+     1.0
Na+     1.0
K+      1.0
Rb+     1.0
Cs+     1.0
F-      -1.0
Cl-     -1.0
Br-     -1.0
I-      -1.0
end ChargeAtomTypes

begin LennardJonesAtomTypes
//name  epsilon(kcal/mol) sigma(Angstroms)
Li+	0.3367344	1.40940177209802
Na+	0.3526418	2.15953849277218
K+	0.4297054	2.83840331599512
Rb+	0.4451036	3.09498214681954
Cs+	0.0898565	3.60101261872325
F-	0.0074005	4.02151681368549
Cl-	0.0127850	4.83045284975692
Br-	0.0269586	4.90172474720815
I-	0.0427845	5.2010667165033
end LennardJonesAtomTypes
