// This is the OpenMD-adapted version of the MOMEC force field found in:
//
// "Molecular modeling of inorganic compounds. 3nd Edition with a
// Tutorial," by Comba, P., Hambley, T., Martin, B.;  VCH, Weinheim,
// 2009. ISBN 3527317996.
//
// "Molecular Mechanics Calculations of Transition Metal Complexes," by
// Paul V. Bernhardt and Peter Comba, Inorganic Chemistry, Vol.31, No.12,
// 1992, pp. 2638-2644. https://pubs.acs.org/doi/pdf/10.1021/ic00038a060
//
// "The Directionality of d-Orbitals and Molecular-Mechanics Calculations
// of Octahedral Transition-Metal Compounds," by Peter Comba, Marc
// Ströhle, and Trevor W. Hambley, HELVETICA CHIMICA ACTA, Vol. 78
// (1995), pp. 2042-2047. https://doi.org/10.1002/hlca.19950780812
//
// "Molecular mechanics modeling of organic backbone of meta-free and
// coordinated ligands," by Johan E. Bol, Christian Buning, Peter Comba,
// Jan Reedijk, and Marc Ströhle, J Comput Chem 19: 512–523, 1998
// https://doi.org/10.1002/(SICI)1096-987X(19980415)19:5<512::AID-JCC4>3.0.CO;2-P
//
// "Molecular Mechanics and the Jahn-Teller Effect," by Peter Comba
// and Marc Zimmer, Inorg. Chem. 1994, 33, pp. 5368-5369.
// https://doi.org/10.1021/ic00102a001
//
// Note that the Jahn-Teller terms appear to be handled in this paper
// via Urey-Bradley bends, although it is not clear how this should
// interact with the HarmonicSine bend functions. The paper is
// sparse on the details.  (We're also unclear on mixed ligands.)
//
// NT  CU2  NT   UreyBradley  90.0   ktheta?   2.16  36.000239006
// NP  CU2  NP   UreyBradley  90.0   ktheta?   2.14  36.000239006
// ND  CU2  ND   UreyBradley  90.0   ktheta?   2.12  43.200286807
//
//                                        NT---NT
//                                        | \ / |
// Also missing harmonic twist angles for | CU2 |  planar geometries.
//                                        | / \ |
//                                        NT---NT
//
// Bodo Martin's website has also been very helpful: http://momec.aci.uni-heidelberg.de/


begin Options
      Name		MOMEC
      vdW-13-scale	1.0         
      vdW-14-scale	1.0         
end Options

begin BaseAtomTypes
H       1.01  
LP      3.00  
C       12.01 
N       14.01 
O       16.00 
P       30.97 
S       32.06 
Ti      47.88 
V       50.94 
Cr      52.00 
Mn      54.94 
Fe      55.85 
Ni      58.70 
Co      58.93 
Cu      63.55 
Zn      65.38 
Y       88.91 
Rh      102.91
La      138.91
Ce      140.12
Pr      140.91
Nd      144.24
Pm      146.92
Sm      150.36
Eu      151.97
Gd      157.25
Tb      158.93
Dy      162.50
Ho      164.93
Er      167.26
Tm      168.93
Yb      173.04
Lu      174.97
Pt      195.08
U       238.03
end BaseAtomTypes

begin AtomTypes
C3      C    // cyanide
CA      C    // aromatic carbon, e.g. benzene or guanine
CAH     C    // pyrrole, imidazole
CB      C    // guanine
CCC     C    // acetylacetone
CCO     C    // carboxylate
CFC     C    // biphenyl (single bond between aromatic subunits)
CI      C    // imine
CK      C    // guanine
CMC     C    
COC     C    // acetylacetone
CON     C    // amide
CT      C    // tetrahedral carbon
N*      N
N3      N    // cyanide
NA      N    // guanine
NAH     N    // pyrrole with CH
NAX     N    // pyrrole-like axially bonded to Cu (octahedral)
NB      N    // guanine
ND      N    // amide
NI      N    // imine
NOO     N    // nitro
NP      N    // pyridine
NT      N    // amine
NTP     N
O2      O    // CO2, P=0
OC      O    // carboxylate
OCC     O    // acetylacetone cis
OCCT    O    // acetylacetone trans
OCO     O    // carboxylate, amide
OH      O    // O-P single bond
ONO     O    // nitro
OP      O    // oxygen bonded to penta-cooordinate copper
OR      O    // ether
OS      O    
OW      O    // oxygen bonded to hexacoordinate copper
OXCO    O    // peroxo Co (III)
OXCU    O    // peroxo Cu (II)
SW      S    // sulfur
TI3     Ti   // titanium (III)
TI4     Ti   // titanium (IV)
V3      V    // vanadium (III)
CR3     Cr   // chromium (III)
MN3     Mn   // manganese (III)
FE      Fe
FE2H    Fe   // iron (II) high spin
FE2L    Fe   // iron (II) low spin
FE3H    Fe   // iron (III) high spin
FE3L    Fe   // iron (III) low spin
FECP    Fe   // iron (II) in ferrocene
NI2     Ni   // nickel (II)
NI2C    Ni
NI2P    Ni
NI2T    Ni   // nickel (II) with four ligands
CO2     Co   // cobalt (II)
CO2T    Co   // cobalt (II) with four ligands
CO3     Co   // cobalt (III)
CO3C    Co   // cobalt (III) carboxylate
CU1     Cu   // copper (I)
CU2     Cu   // copper (II)
CU2C    Cu   // copper (II) carboxylate
CU2P    Cu   // copper (II) pyridine
CU2T    Cu   // copper (II) with four ligands
ZN2     Zn   // zinc (II)
ZN2T    Zn   // zinc (II) with four ligands)
Y3      Y   
RH3     Rh
LA3     La   // lanthanum (III)
CE3     Ce
PR3     Pr
ND3     Nd
PM3     Pm
SM3     Sm
EU3     Eu
GD3     Gd
TB3     Tb
DY3     Dy
HO3     Ho
ER3     Er
TM3     Tm
YB3     Yb
LU3     Lu  // lutetium (III)
PT2     Pt  // platinum (II)
PT4     Pt  // platinum (IV)
U6      U
end AtomTypes

begin BondTypes
  C3	  N3	Harmonic	        1.107	      1152.01
   C	  CB	Harmonic	        1.419	      894.246
   C	  NA	Harmonic	        1.388	      836.646
   C	   O	Harmonic	        1.229	      1140.49
  CA	  CA	Harmonic	        1.377	      1065.61
  CA	 CFC	Harmonic	        1.377	      1065.61
  CA	 CON	Harmonic	        1.377	      1065.61
  CA	  CT	Harmonic	          1.5	      720.005
  CA	   H	Harmonic	         0.97	      720.005
  CA	  NA	Harmonic	        1.381	      855.366
  CA	  NP	Harmonic	        1.335	      936.006
  CA	  NT	Harmonic	         1.34	      963.366
 CAH	  CA	Harmonic	         1.38	      216.001
 CAH	 CAH	Harmonic	         1.37	      216.001
 CAH	  CI	Harmonic	         1.45	      648.004
 CAH	  CT	Harmonic	         1.49	      432.003
 CAH	   H	Harmonic	         0.97	      720.005
 CAH	 NAH	Harmonic	         1.34	      216.001
 CAH	 NAX	Harmonic	         1.34	      360.002
 CAH	  NI	Harmonic	         1.44	      648.004
  CB	  CB	Harmonic	         1.37	      1039.69
  CB	  N*	Harmonic	        1.374	      872.646
  CB	  NA	Harmonic	        1.354	      923.046
  CB	  NB	Harmonic	        1.391	      828.005
 CCC	 COC	Harmonic	        1.377	      1065.61
 CCC	   H	Harmonic	         0.97	      720.005
 CCO	 CCO	Harmonic	        1.525	      720.005
 CCO	  CT	Harmonic	          1.5	      720.005
 CCO	  OC	Harmonic	         1.29	      1152.01
 CCO	 OCO	Harmonic	         1.22	      1296.01
 CE3	  O2	Harmonic	         2.37	      7.63205
 CE3	  OH	Harmonic	         2.37	      7.63205
 CFC	 CFC	Harmonic	         1.47	      720.005
 CFC	 COC	Harmonic	         1.47	      720.005
 CFC	  NP	Harmonic	        1.335	      936.006
  CI	  CA	Harmonic	         1.46	      720.005
  CI	   H	Harmonic	         0.95	      561.604
  CI	  NI	Harmonic	         1.27	      1036.81
  CK	   H	Harmonic	         0.97	      720.005
  CK	  N*	Harmonic	        1.371	      881.286
  CK	  NB	Harmonic	        1.304	      1058.41
 CO2	  NP	Harmonic	          2.1	      118.081
 CO2	  NT	Harmonic	         2.12	      118.081
CO2T	  ND	Harmonic	         1.78	      118.081
CO2T	  NP	Harmonic	         1.96	      118.081
 CO3	  NP	Harmonic	        1.865	      252.002
 CO3	  NT	Harmonic	        1.905	      252.002
CO3C	  NP	Harmonic	        1.865	      252.002
CO3C	  NT	Harmonic	        1.915	      252.002
CO3C	  OC	Harmonic	         1.86	      201.601
CO3C	 OCC	Harmonic	         1.88	      201.601
CO3P	OXCO	Harmonic	         1.84	      252.002
 COC	  CT	Harmonic	          1.5	      720.005
 COC	 OCC	Harmonic	        1.275	      1065.61
 COC	OCCT	Harmonic	        1.275	      1065.61
 CON	  CT	Harmonic	          1.5	      720.005
 CON	  ND	Harmonic	         1.31	      936.006
 CON	 OCO	Harmonic	         1.26	      1296.01
 CR3	  NP	Harmonic	        1.985	      144.001
 CR3	  NT	Harmonic	        2.045	      158.401
 CR3	  OC	Harmonic	        1.935	      108.001
  CT	  CT	Harmonic	          1.5	      720.005
  CT	 CTO	Harmonic	          1.5	      720.005
  CT	CTOC	Harmonic	          1.5	      720.005
  CT	   H	Harmonic	         0.97	      720.005
  CT	  N*	Harmonic	        1.475	      675.364
  CT	 NAH	Harmonic	         1.45	      432.003
  CT	  ND	Harmonic	         1.49	      864.006
  CT	 NOO	Harmonic	         1.53	      720.005
  CT	  NT	Harmonic	         1.49	      864.006
  CT	  OP	Harmonic	         1.41	      504.003
  CT	  OR	Harmonic	          1.4	      720.005
  CT	  OW	Harmonic	         1.34	      72.0005
  CT	  SW	Harmonic	         1.82	      380.163
 CTO	 CTO	Harmonic	        1.505	      720.005
 CTO	CTOC	Harmonic	         1.51	      720.005
CTOC	CTOC	Harmonic	         1.49	      720.005
CTOC	 NOO	Harmonic	        1.528	      720.005
CTOC	 NTO	Harmonic	         1.48	      864.006
 CU1	  NI	Harmonic	            2	      100.801
 CU1	  NT	Harmonic	         2.22	      14.4001
 CU2	  ND	Harmonic	         1.92	      86.4006
 CU2	  NP	Harmonic	         1.94	      86.4006
 CU2	  NT	Harmonic	         1.97	      86.4006
 CU2	  OC	Harmonic	          1.9	      115.201
 CU2	 ONO	Harmonic	          2.5	      14.4001
 CU2	  OP	Harmonic	         2.15	      14.4001
 CU2	  OW	Harmonic	          2.5	      14.4001
 CU2	  SW	Harmonic	         2.29	      86.4006
CU2C	  ND	Harmonic	         1.92	      86.4006
CU2C	  NP	Harmonic	         1.94	      86.4006
CU2C	  NT	Harmonic	         1.97	      86.4006
CU2C	  OC	Harmonic	          1.9	      115.201
CU2C	  OW	Harmonic	          2.5	      14.4001
CU2C	  SW	Harmonic	         2.29	      86.4006
CU2P	 NAH	Harmonic	         1.98	      129.601
CU2P	 NAX	Harmonic	          2.3	      43.2003
CU2P	  ND	Harmonic	         1.92	      86.4006
CU2P	  NP	Harmonic	         1.94	      86.4006
CU2P	  NT	Harmonic	         1.94	      86.4006
CU2P	  OC	Harmonic	          1.9	      115.201
CU2P	 ONO	Harmonic	          2.5	      14.4001
CU2P	  OP	Harmonic	         2.15	      14.4001
CU2P	  OW	Harmonic	          2.5	      14.4001
CU2P	OXCU	Harmonic	         1.83	      86.4006
CU2T	  ND	Harmonic	         1.89	      86.4006
CU2T	  NP	Harmonic	         1.99	      86.4006
 DY3	  O2	Harmonic	        2.195	      10.3681
 DY3	  OH	Harmonic	        2.195	      10.3681
 DY3	  OW	Harmonic	        2.195	      10.3681
 ER3	  O2	Harmonic	         2.15	      10.6561
 ER3	  OH	Harmonic	         2.15	      10.6561
 EU3	  O2	Harmonic	        2.245	      9.64806
 EU3	  OH	Harmonic	        2.245	      9.64806
FE3H	  OC	Harmonic	         1.99	      144.001
FE3H	  OW	Harmonic	          1.9	      72.0005
FE3L	  NP	Harmonic	        1.925	      244.802
FE3L	  NT	Harmonic	         1.95	      244.802
FE3L	  C3	Harmonic	        1.923	      244.802
 GD3	  O2	Harmonic	        2.226	      9.93607
 GD3	  OH	Harmonic	        2.226	      9.93607
 GD3	  OW	Harmonic	        2.226	      9.93607
   H	  NA	Harmonic	         0.91	      868.326
   H	  NT	Harmonic	         0.91	      812.165
   H	  OP	Harmonic	         0.91	      720.005
   H	  OW	Harmonic	         0.91	      720.005
 HO3	  O2	Harmonic	        2.178	      10.5121
 HO3	  OH	Harmonic	        2.178	      10.5121
 HO3	  OW	Harmonic	        2.178	      10.5121
 LA3	  O2	Harmonic	        2.409	      7.05605
 LA3	  OH	Harmonic	        2.409	      7.05605
 LA3	  OW	Harmonic	        2.409	      7.05605
 LU3	  O2	Harmonic	        2.038	      10.9441
 LU3	  OH	Harmonic	        2.038	      10.9441
 LU3	  OW	Harmonic	        2.038	      10.9441
 MN3	  OC	Harmonic	         1.95	      43.2003
 NAH	   H	Harmonic	         0.91	      720.005
 NAH	 NAH	Harmonic	         1.36	      216.001
 NAH	 NAX	Harmonic	         1.36	      216.001
 ND3	  O2	Harmonic	         2.32	      8.35206
 ND3	  OH	Harmonic	         2.32	      8.35206
 ND3	  OW	Harmonic	         2.32	      8.35206
 NI2	  NT	Harmonic	         2.09	      86.4006
NI2C	  NP	Harmonic	        2.025	      86.4006
NI2C	  NT	Harmonic	        2.035	      86.4006
NI2C	  OC	Harmonic	         2.04	      93.6006
NI2P	  NP	Harmonic	        2.025	      86.4006
NI2P	  NT	Harmonic	         2.05	      86.4006
NI2T	  ND	Harmonic	         1.76	      86.4006
NI2T	  NP	Harmonic	        1.855	      86.4006
 NOO	 ONO	Harmonic	        1.213	      936.006
OXCO	OXCO	Harmonic	         1.47	      468.003
OXCU	OXCU	Harmonic	         1.43	      468.003
   P	  O2	Harmonic	        1.448	      1050.77
   P	  OH	Harmonic	        1.665	      460.371
   P	  OS	Harmonic	        1.686	      460.371
 PM3	  O2	Harmonic	        2.285	      8.92806
 PM3	  OH	Harmonic	        2.285	      8.92806
 PR3	  O2	Harmonic	        2.345	      8.06405
 PR3	  OH	Harmonic	        2.345	      8.06405
 PR3	  OW	Harmonic	        2.345	      8.06405
 PT2	  NB	Harmonic	         2.01	      365.762
 PT2	  NT	Harmonic	         2.03	      365.762
 RH3	  NT	Harmonic	         2.05	      252.002
 SM3	  O2	Harmonic	        2.258	      9.21606
 SM3	  OH	Harmonic	        2.258	      9.21606
 SM3	  OW	Harmonic	        2.258	      9.21606
 TB3	  O2	Harmonic	        2.213	      10.2241
 TB3	  OH	Harmonic	        2.213	      10.2241
 TI3	  OC	Harmonic	         2.08	      115.201
 TI3	  OW	Harmonic	        2.035	      72.0005
 TI4	 OCC	Harmonic	         1.98	      216.001
 TI4	OCCT	Harmonic	         2.04	      216.001
 TI4	  OW	Harmonic	        1.722	      72.0005
 TM3	  O2	Harmonic	        2.215	      10.8001
 TM3	  OH	Harmonic	        2.215	      10.8001
  V3	  OC	Harmonic	         1.92	      72.0005
  V3	  OW	Harmonic	         1.98	      72.0005
  Y3	  O2	Harmonic	         2.16	      10.6561
  Y3	  OH	Harmonic	         2.16	      10.6561
 YB3	  O2	Harmonic	        2.095	      10.9441
 YB3	  OH	Harmonic	        2.095	      10.9441
 YB3	  OW	Harmonic	        2.095	      10.9441
 ZN2	  ND	Harmonic	            2	      50.4003
 ZN2	  NP	Harmonic	          2.1	      50.4003
ZN2T	  NP	Harmonic	          2.1	      50.4003
ZN2T	  ND	Harmonic	            2	      50.4003
 ZN2	  NT	Harmonic	         2.22	      50.4003
end BondTypes

begin BendTypes
  CB	   C	  NA	Harmonic	      111.326	      139.681
  CB	   C	   O	Harmonic	      128.801	      159.841
  NA	   C	   O	Harmonic	      120.608	      159.841
  CA	  CA	  CA	Harmonic	      119.977	      139.681
  CA	  CA	 CFC	Harmonic	      119.977	      139.681
  CA	  CA	 CON	Harmonic	      119.977	      139.681
  CA	  CA	  CT	Harmonic	      119.977	      64.8004
  CA	  CA	   H	Harmonic	      119.977	      64.8004
  CA	  CA	  NP	Harmonic	      119.977	      139.681
  CA	  CA	  NT	Harmonic	      119.977	      64.8004
 CAH	  CA	  CA	Harmonic	      115.967	      64.8004
 CAH	  CA	   H	Harmonic	      121.582	      64.8004
 CFC	  CA	   H	Harmonic	      119.977	      64.8004
 CFC	  CA	  NP	Harmonic	      119.977	      139.681
  CI	  CA	  CA	Harmonic	      119.977	      36.0002
 CON	  CA	  NP	Harmonic	      119.977	      139.681
  CT	  CA	  NP	Harmonic	      119.977	      64.8004
   H	  CA	  NP	Harmonic	      119.977	      64.8004
  NA	  CA	  NA	Harmonic	      123.301	      139.681
  NA	  CA	  NT	Harmonic	      116.024	      139.681
  NA	  CA	  NT	Harmonic	      119.805	      139.681
 CAH	 CAH	  CA	Harmonic	      121.582	      21.6001
 CAH	 CAH	 CAH	Harmonic	      105.997	      14.4001
 CAH	 CAH	  CI	Harmonic	      132.009	      93.6006
 CAH	 CAH	  CT	Harmonic	      130.291	      93.6006
 CAH	 CAH	   H	Harmonic	       126.91	      64.8004
 CAH	 CAH	 NAH	Harmonic	      112.013	      21.6001
 CAH	 CAH	 NAX	Harmonic	      112.013	      21.6001
  CI	 CAH	 NAH	Harmonic	      121.009	      93.6006
  CT	 CAH	 NAH	Harmonic	      121.009	      93.6006
  CT	 CAH	 NAX	Harmonic	      121.009	      93.6006
 NAH	 CAH	  CA	Harmonic	      131.322	      21.6001
 NAH	 CAH	   H	Harmonic	      119.977	      50.4003
 NAH	 CAH	 NAH	Harmonic	      112.013	      21.6001
   C	  CB	  CB	Harmonic	      119.175	      169.921
   C	  CB	  NB	Harmonic	      130.004	      139.681
  CB	  CB	  N*	Harmonic	      106.226	      139.681
  CB	  CB	  NA	Harmonic	      127.712	      139.681
  CB	  CB	  NB	Harmonic	      109.492	      139.681
  NA	  CB	  N*	Harmonic	      125.993	      139.681
 COC	 CCC	 COC	Harmonic	      119.977	      139.681
 COC	 CCC	   H	Harmonic	      119.977	      139.681
  CT	 CCO	  OC	Harmonic	       118.43	      36.0002
  CT	 CCO	 OCO	Harmonic	       118.43	      36.0002
  OC	 CCO	 CCO	Harmonic	       114.19	      115.201
  OC	 CCO	  OC	Harmonic	      119.977	      36.0002
  OC	 CCO	 OCO	Harmonic	      123.129	      36.0002
 OCO	 CCO	 CCO	Harmonic	      121.181	      136.801
  CA	 CFC	  CA	Harmonic	      119.977	      139.681
  CA	 CFC	 CFC	Harmonic	      119.977	      64.8004
  CA	 CFC	 COC	Harmonic	      119.977	      50.4003
  CA	 CFC	  NP	Harmonic	      119.977	      139.681
 CFC	 CFC	  NP	Harmonic	      119.977	      64.8004
  CA	  CI	   H	Harmonic	      119.977	      64.8004
 CAH	  CI	   H	Harmonic	      119.977	      64.8004
 CAH	  CI	  NI	Harmonic	      119.977	      21.6001
  NI	  CI	  CA	Harmonic	      119.977	      21.6001
  NI	  CI	   H	Harmonic	      119.977	      64.8004
   H	  CK	  N*	Harmonic	      123.071	      70.5605
   H	  CK	  NB	Harmonic	      123.071	      70.5605
  NB	  CK	  N*	Harmonic	        112.3	      139.681
  NP	 CO2	  NP	HarmonicSine	      3.31202
  NT	 CO2	  NT	HarmonicSine	      2.44802
  ND	CO2T	  ND	HarmonicSine	      2.44802
  NP	CO2T	  ND	HarmonicSine	      2.44802
  NP	CO2T	  NP	HarmonicSine	      2.44802
  NP	 CO3	  NP	HarmonicSine	      7.20005
  NP	 CO3	  NT	HarmonicSine	      7.20005
  NT	 CO3	  NT	HarmonicSine	      7.20005
  NP	CO3C	  NP	HarmonicSine	      7.20005
  NP	CO3C	  NT	HarmonicSine	      7.20005
  NT	CO3C	  NT	HarmonicSine	      7.20005
  NT	CO3C	  OC	HarmonicSine	      6.48004
  NT	CO3C	 OCC	HarmonicSine	      6.48004
  OC	CO3C	  OC	HarmonicSine	      5.76004
 OCC	CO3C	 OCC	HarmonicSine	      5.76004
 CCC	 COC	 CFC	Harmonic	      119.977	      50.4003
 CCC	 COC	  CT	Harmonic	      119.977	      50.4003
 CCC	 COC	 OCC	Harmonic	      119.977	      139.681
 CCC	 COC	OCCT	Harmonic	      119.977	      139.681
 CFC	 COC	 OCC	Harmonic	      119.977	      50.4003
 CFC	 COC	OCCT	Harmonic	      119.977	      50.4003
  CT	 COC	 OCC	Harmonic	      119.977	      50.4003
  CT	 COC	OCCT	Harmonic	      119.977	      50.4003
  CA	 CON	  ND	Harmonic	       118.43	      36.0002
  CA	 CON	 OCO	Harmonic	       118.43	      36.0002
  CT	 CON	  ND	Harmonic	       118.43	      36.0002
  CT	 CON	 OCO	Harmonic	       118.43	      36.0002
  ND	 CON	 OCO	Harmonic	      119.977	      36.0002
  NP	  CR	  NP	HarmonicSine	      3.60002
  NP	 CR3	  NT	HarmonicSine	      3.60002
  NT	 CR3	  NT	HarmonicSine	      3.60002
  CA	  CT	  CA	Harmonic	      109.492	      64.8004
  CA	  CT	  CT	Harmonic	      109.492	      64.8004
  CA	  CT	   H	Harmonic	      109.378	      51.8403
  CA	  CT	  ND	Harmonic	      109.492	      64.8004
  CA	  CT	  NT	Harmonic	      109.492	      64.8004
  CA	  CT	  OP	Harmonic	      109.492	      64.8004
  CA	  CT	  OW	Harmonic	      109.492	      64.8004
 CAH	  CT	  CA	Harmonic	      109.492	      64.8004
 CAH	  CT	 CAH	Harmonic	        112.3	      64.8004
 CAH	  CT	  CT	Harmonic	        112.3	      64.8004
 CAH	  CT	   H	Harmonic	      109.378	      51.8403
 CAH	  CT	  NT	Harmonic	      109.492	      64.8004
 CAH	  CT	  OP	Harmonic	      109.492	      64.8004
 CAH	  CT	  OW	Harmonic	      109.492	      64.8004
 CCO	  CT	 CCO	Harmonic	      109.492	      64.8004
 CCO	  CT	  CT	Harmonic	      109.492	      64.8004
 CCO	  CT	   H	Harmonic	      109.378	      51.8403
 CCO	  CT	  ND	Harmonic	      109.492	      64.8004
 CCO	  CT	  NT	Harmonic	      109.492	      64.8004
 COC	  CT	   H	Harmonic	      109.378	      50.4003
 CON	  CT	 CON	Harmonic	      109.492	      64.8004
 CON	  CT	  CT	Harmonic	      109.492	      64.8004
 CON	  CT	   H	Harmonic	      109.378	      51.8403
 CON	  CT	  NT	Harmonic	      109.492	      64.8004
  CT	  CT	  CT	Harmonic	      109.492	      64.8004
  CT	  CT	   H	Harmonic	      109.378	      51.8403
  CT	  CT	  N*	Harmonic	      109.378	      72.0005
  CT	  CT	 NAH	Harmonic	      109.492	      64.8004
  CT	  CT	  ND	Harmonic	      109.492	      64.8004
  CT	  CT	 NOO	Harmonic	      109.492	      64.8004
  CT	  CT	  NT	Harmonic	      109.492	      64.8004
  CT	  CT	  OW	Harmonic	      109.492	      64.8004
  CT	  CT	  SW	Harmonic	      109.492	      99.3607
   H	  CT	   H	Harmonic	      108.977	      46.0803
   H	  CT	  N*	Harmonic	      109.378	      51.8403
   H	  CT	  ND	Harmonic	      109.378	      51.8403
   H	  CT	  NT	Harmonic	      109.378	      51.8403
   H	  CT	  OW	Harmonic	      109.378	      51.8403
   H	  CT	  SW	Harmonic	      109.492	      64.8004
 NAH	  CT	   H	Harmonic	      109.378	      51.8403
 NAH	  CT	  OP	Harmonic	      108.003	      64.8004
 NAH	  CT	  OW	Harmonic	      108.003	      64.8004
  NI	  CT	  CT	Harmonic	      109.492	      64.8004
  NI	  CT	   H	Harmonic	      109.492	      64.8004
  NT	  CT	  NT	Harmonic	      109.492	      64.8004
  OS	  CT	   H	Harmonic	      109.492	      69.8405
  CT	 CTO	 CTO	Harmonic	      110.008	      64.8004
   H	 CTO	   H	Harmonic	      109.492	      46.0803
  ND	 CU2	  ND	HarmonicSine	      1.87201
  ND	 CU2	  NP	HarmonicSine	      1.87201
  ND	 CU2	  NT	HarmonicSine	      1.87201
  ND	 CU2	  OW	HarmonicSine	      1.00801
  NP	 CU2	  NP	HarmonicSine	      1.87201
  NP	 CU2	  NT	HarmonicSine	      1.87201
  NP	 CU2	 ONO	HarmonicSine	      1.00801
  NP	 CU2	  OW	HarmonicSine	      1.00801
  NP	 CU2	  SW	HarmonicSine	      1.87201
  NT	 CU2	  NT	HarmonicSine	      1.87201
  NT	 CU2	 ONO	HarmonicSine	      1.00801
  NT	 CU2	  OW	HarmonicSine	      1.00801
  NT	 CU2	  SW	HarmonicSine	      1.87201
 ONO	 CU2	 ONO	HarmonicSine	     0.288002
 ONO	 CU2	  OW	HarmonicSine	     0.288002
 ONO	 CU2	  SW	HarmonicSine	      1.00801
  OW	 CU2	  OW	HarmonicSine	     0.288002
  OW	 CU2	  SW	HarmonicSine	      1.00801
  SW	 CU2	  SW	HarmonicSine	      1.87201
  ND	CU2C	  ND	HarmonicSine	      1.87201
  ND	CU2C	  NP	HarmonicSine	      1.87201
  ND	CU2C	  NT	HarmonicSine	      1.87201
  ND	CU2C	  OC	HarmonicSine	      2.16001
  ND	CU2C	  OW	HarmonicSine	      1.00801
  NP	CU2C	  NP	HarmonicSine	      1.87201
  NP	CU2C	  NT	HarmonicSine	      1.87201
  NP	CU2C	 ONO	HarmonicSine	      1.00801
  NP	CU2C	  OW	HarmonicSine	      1.00801
  NP	CU2C	  SW	HarmonicSine	      1.87201
  NT	CU2C	  NT	HarmonicSine	      1.87201
  NT	CU2C	  OC	HarmonicSine	      2.16001
  NT	CU2C	 ONO	HarmonicSine	      1.00801
  NT	CU2C	  OW	HarmonicSine	      1.00801
  NT	CU2C	  SW	HarmonicSine	      1.87201
  OC	CU2C	  OC	HarmonicSine	      2.44802
  OC	CU2C	  OW	HarmonicSine	      1.29601
 ONO	CU2C	 ONO	HarmonicSine	     0.288002
 ONO	CU2C	  OW	HarmonicSine	     0.288002
 ONO	CU2C	  SW	HarmonicSine	      1.00801
  OW	CU2C	  OW	HarmonicSine	     0.288002
  OW	CU2C	  SW	HarmonicSine	      1.00801
  SW	CU2C	  SW	HarmonicSine	      1.87201
  ND	CU2P	  ND	HarmonicSine	      1.87201
  ND	CU2P	  NP	HarmonicSine	      1.87201
  ND	CU2P	  NT	HarmonicSine	      1.87201
  ND	CU2P	  OW	HarmonicSine	      1.00801
  NP	CU2P	  NP	HarmonicSine	      1.87201
  NP	CU2P	  NT	HarmonicSine	      1.87201
  NP	CU2P	 ONO	HarmonicSine	      1.00801
  NP	CU2P	  OW	HarmonicSine	      1.00801
  NP	CU2P	  SW	HarmonicSine	      1.87201
  NT	CU2P	  NT	HarmonicSine	      1.87201
  NT	CU2P	  OC	HarmonicSine	      2.16001
  NT	CU2P	 ONO	HarmonicSine	      1.00801
  NT	CU2P	  OW	HarmonicSine	      1.00801
  NT	CU2P	  SW	HarmonicSine	      1.87201
  OC	CU2P	  OC	HarmonicSine	      2.44802
  OC	CU2P	  OW	HarmonicSine	      1.29601
 ONO	CU2P	 ONO	HarmonicSine	     0.288002
 ONO	CU2P	  OW	HarmonicSine	     0.288002
 ONO	CU2P	  SW	HarmonicSine	      1.00801
  OW	CU2P	  OW	HarmonicSine	     0.288002
  OW	CU2P	  SW	HarmonicSine	      1.00801
  SW	CU2P	  SW	HarmonicSine	      1.87201
  NP	CU2T	  NP	HarmonicSine	      1.87201
  ND	CU2T	  NP	HarmonicSine	      1.87201
  ND	CU2T	  ND	HarmonicSine	      1.87201
  C3	FE3L	  C3	HarmonicSine	      11.8081
  NP	FE3L	  NP	HarmonicSine	      6.04804
  NP	FE3L	  NT	HarmonicSine	      6.04804
  NT	FE3L	  NT	HarmonicSine	      6.04804
  CB	  N*	  CK	Harmonic	      106.513	      139.681
  CB	  N*	  CT	Harmonic	      125.822	      139.681
  CK	  N*	  CT	Harmonic	      128.801	      139.681
   C	  NA	  CA	Harmonic	      126.394	      139.681
   C	  NA	   H	Harmonic	      116.826	      70.5605
  CA	  NA	  CB	Harmonic	      112.185	      139.681
  CA	  NA	   H	Harmonic	      117.972	      70.5605
 CAH	 NAH	 CAH	Harmonic	      105.539	      21.6001
 CAH	 NAH	  CT	Harmonic	      128.514	      93.6006
 CAH	 NAH	CU2P	Harmonic	      123.014	      28.8002
 CAH	 NAH	   H	Harmonic	      119.977	      50.4003
 CAH	 NAH	 NAH	Harmonic	      108.003	      28.8002
CU2P	 NAH	 NAH	Harmonic	      130.004	      28.8002
 NAH	 NAH	  CT	Harmonic	      119.977	      93.6006
 NAH	 NAH	   H	Harmonic	      119.977	      50.4003
 NAX	 NAH	 CAH	Harmonic	      108.003	      28.8002
 NAX	 NAH	  CT	Harmonic	      119.977	      93.6006
 CAH	 NAX	CU2P	Harmonic	      123.014	      14.4001
 CAH	 NAX	 NAH	Harmonic	       104.45	      28.8002
CU2P	 NAX	 NAH	Harmonic	      132.009	      14.4001
  CB	  NB	  CK	Harmonic	      105.482	      139.681
 PT2	  NB	  CB	Harmonic	      127.254	      43.2003
 PT2	  NB	  CK	Harmonic	      127.254	      43.2003
  CT	  ND	 CON	Harmonic	       118.43	      36.0002
 CU2	  ND	 CON	Harmonic	      119.977	      28.8002
 CU2	  ND	  CT	Harmonic	      119.977	      28.8002
CU2C	  ND	 CON	Harmonic	      119.977	      28.8002
CU2C	  ND	  CT	Harmonic	      119.977	      28.8002
CU2P	  ND	 CON	Harmonic	      119.977	      28.8002
CU2P	  ND	  CT	Harmonic	      119.977	      28.8002
  CI	  NI	  CT	Harmonic	      119.977	      64.8004
  CI	  NI	CU2P	Harmonic	      134.989	      14.4001
  CT	  NI	  CI	Harmonic	      114.993	      64.8004
  CT	  NI	CU2P	Harmonic	      110.008	      28.8002
 CU1	  NI	  CI	Harmonic	      134.989	      14.4001
 CU1	  NI	  CT	Harmonic	       109.55	      14.4001
  NP	 NI2	  NT	HarmonicSine	      3.60002
  NT	 NI2	  NT	HarmonicSine	      3.60002
  NP	NI2C	  NP	HarmonicSine	      3.60002
  NP	NI2C	  NT	HarmonicSine	      3.60002
  NP	NI2C	  OC	HarmonicSine	      3.74402
  NT	NI2C	  NT	HarmonicSine	      3.60002
  NT	NI2C	  OC	HarmonicSine	      3.74402
  OC	NI2C	  OC	HarmonicSine	      3.88803
  NP	NI2P	  NP	HarmonicSine	      3.60002
  NP	NI2P	  NT	HarmonicSine	      3.60002
  NT	NI2P	  NT	HarmonicSine	      3.60002
  ND	NI2T	  NP	HarmonicSine	      3.60002
  NP	NI2T	  NP	HarmonicSine	      3.60002
  ND	NI2T	  ND	HarmonicSine	      3.60002
  CT	 NOO	 ONO	Harmonic	      117.972	      64.8004
 ONO	 NOO	 ONO	Harmonic	      123.988	      93.6006
  CA	  NP	  CA	Harmonic	      119.977	      139.681
  CA	  NP	 CFC	Harmonic	      119.977	      139.681
 CFC	  NP	 CFC	Harmonic	      119.977	      139.681
 CO2	  NP	  CA	Harmonic	      119.977	      28.8002
 CO2	  NP	 CFC	Harmonic	      119.977	      28.8002
 CO3	  NP	  CA	Harmonic	      119.977	      28.8002
 CO3	  NP	 CFC	Harmonic	      119.977	      28.8002
 CO3	  NP	  CT	Harmonic	      119.977	      28.8002
CO3C	  NP	  CA	Harmonic	      119.977	      28.8002
CO3C	  NP	 CFC	Harmonic	      119.977	      28.8002
CO3C	  NP	  CT	Harmonic	      119.977	      28.8002
 CR3	  NP	  CA	Harmonic	      119.977	      28.8002
 CR3	  NP	 CFC	Harmonic	      119.977	      28.8002
 CU2	  NP	  CA	Harmonic	      119.977	      28.8002
 CU2	  NP	 CFC	Harmonic	      119.977	      28.8002
CU2C	  NP	  CA	Harmonic	      119.977	      28.8002
CU2C	  NP	 CFC	Harmonic	      119.977	      28.8002
CU2P	  NP	  CA	Harmonic	      119.977	      28.8002
CU2P	  NP	 CFC	Harmonic	      119.977	      28.8002
FE3L	  NP	  CA	Harmonic	      119.977	      28.8002
FE3L	  NP	 CFC	Harmonic	      119.977	      28.8002
NI2C	  NP	  CA	Harmonic	      119.977	      28.8002
NI2C	  NP	 CFC	Harmonic	      119.977	      28.8002
NI2P	  NP	  CA	Harmonic	      119.977	      28.8002
NI2P	  NP	 CFC	Harmonic	      119.977	      28.8002
  CA	  NT	  CT	Harmonic	      109.492	      64.8004
  CA	  NT	   H	Harmonic	      109.378	      64.8004
 CO2	  NT	  CT	Harmonic	      110.008	      28.8002
 CO2	  NT	   H	Harmonic	      109.721	      14.4001
 CO3	  NT	  CA	Harmonic	      110.008	      28.8002
 CO3	  NT	  CT	Harmonic	      110.008	      28.8002
 CO3	  NT	   H	Harmonic	      109.721	      14.4001
CO3C	  NT	  CA	Harmonic	      110.008	      28.8002
CO3C	  NT	  CT	Harmonic	      110.008	      28.8002
CO3C	  NT	   H	Harmonic	      109.721	      14.4001
 CR3	  NT	  CT	Harmonic	      110.008	      28.8002
 CR3	  NT	   H	Harmonic	      109.721	      14.4001
  CT	  NT	  CT	Harmonic	      109.492	      64.8004
  CT	  NT	   H	Harmonic	      109.378	      64.8004
 CU1	  NT	  CT	Harmonic	      110.008	      28.8002
 CU1	  NT	   H	Harmonic	      109.721	      14.4001
 CU2	  NT	  CA	Harmonic	      110.008	      28.8002
 CU2	  NT	  CT	Harmonic	      110.008	      28.8002
 CU2	  NT	   H	Harmonic	      109.721	      14.4001
CO2T	  NP	  CA	Harmonic	      119.977	      28.8002
CO2T	  ND	 CON	Harmonic	      119.977	      28.8002
CO2T	  ND	  CT	Harmonic	      119.977	      28.8002
CU2C	  NT	  CA	Harmonic	      110.008	      28.8002
CU2C	  NT	  CT	Harmonic	      110.008	      28.8002
CU2C	  NT	   H	Harmonic	      109.721	      14.4001
CU2P	  NT	  CA	Harmonic	      110.008	      28.8002
CU2P	  NT	  CT	Harmonic	      110.008	      28.8002
CU2P	  NT	   H	Harmonic	      109.721	      14.4001
CU2T	  NP	  CA	Harmonic	      119.977	      28.8002
CU2T	  ND	 CON	Harmonic	      119.977	      28.8002
CU2T	  ND	  CT	Harmonic	      119.977	      28.8002
FE3L	  C3	  N3	HarmonicSine	      2.88002
FE3L	  NT	  CT	Harmonic	      110.008	      28.8002
FE3L	  NT	   H	Harmonic	      109.721	      14.4001
   H	  NT	   H	Harmonic	      108.977	      47.5203
 NI2	  NT	  CT	Harmonic	      110.008	      28.8002
 NI2	  NT	   H	Harmonic	      109.721	      14.4001
NI2C	  NT	  CT	Harmonic	      110.008	      28.8002
NI2C	  NT	   H	Harmonic	      109.721	      14.4001
NI2P	  NT	  CT	Harmonic	      110.008	      28.8002
NI2P	  NT	   H	Harmonic	      109.721	      14.4001